6

C      -0.047131000000000      0.664389000000000      0.000000000000000
O      -0.047131000000000     -0.758551000000000      0.000000000000000
H      -1.092995000000000      0.969785000000000      0.000000000000000
H       0.878534000000000     -1.048458000000000      0.000000000000000
H       0.437145000000000      1.080376000000000      0.891772000000000
H       0.437145000000000      1.080376000000000     -0.891772000000000
