 xtb: 6.7.1 (f02873e4dc4a3070f355eaf9db37e90a8a0123c4)
          04122520203D

  6  5  0     0  0            999 V2000
   -0.0495    0.6648   -0.0000 C   0  0  0  0  0  0  0  0  0  0  0  0
   -0.0389   -0.7416   -0.0000 O   0  0  0  0  0  0  0  0  0  0  0  0
   -1.0954    0.9662    0.0000 H   0  0  0  0  0  0  0  0  0  0  0  0
    0.8736   -1.0491    0.0000 H   0  0  0  0  0  0  0  0  0  0  0  0
    0.4379    1.0738    0.8917 H   0  0  0  0  0  0  0  0  0  0  0  0
    0.4379    1.0738   -0.8917 H   0  0  0  0  0  0  0  0  0  0  0  0
  1  2  1  0  0  0  0
  1  3  1  0  0  0  0
  2  4  1  0  0  0  0
  1  5  1  0  0  0  0
  1  6  1  0  0  0  0
M  END
