 xtb: 6.7.1 (d3f212ba83287290efafee6580670d02d7b2f49d)
          06112520123D

  9  8  0     0  0            999 V2000
    5.0932    3.5097    4.0000 C   0  0  0  0  0  0  0  0  0  0  0  0
    3.9120    4.4679    4.0000 C   0  0  0  0  0  0  0  0  0  0  0  0
    2.7211    3.7085    4.0000 O   0  0  0  0  0  0  0  0  0  0  0  0
    1.9643    4.3027    4.0000 H   0  0  0  0  0  0  0  0  0  0  0  0
    3.9541    5.1120    4.8909 H   0  0  0  0  0  0  0  0  0  0  0  0
    3.9541    5.1120    3.1091 H   0  0  0  0  0  0  0  0  0  0  0  0
    6.0258    4.0668    4.0000 H   0  0  0  0  0  0  0  0  0  0  0  0
    5.0516    2.8762    4.8816 H   0  0  0  0  0  0  0  0  0  0  0  0
    5.0516    2.8762    3.1184 H   0  0  0  0  0  0  0  0  0  0  0  0
  1  2  1  0  0  0  0
  2  3  1  0  0  0  0
  3  4  1  0  0  0  0
  2  5  1  0  0  0  0
  2  6  1  0  0  0  0
  1  7  1  0  0  0  0
  1  8  1  0  0  0  0
  1  9  1  0  0  0  0
M  END
