 xtb: 6.7.1 (d3f212ba83287290efafee6580670d02d7b2f49d)
          06112520133D

  5  4  0     0  0            999 V2000
    4.0000    4.0000    4.0000 C   0  0  0  0  0  0  0  0  0  0  0  0
    4.6245    4.6245    4.6245 H   0  0  0  0  0  0  0  0  0  0  0  0
    3.3755    3.3755    4.6245 H   0  0  0  0  0  0  0  0  0  0  0  0
    4.6245    3.3755    3.3755 H   0  0  0  0  0  0  0  0  0  0  0  0
    3.3755    4.6245    3.3755 H   0  0  0  0  0  0  0  0  0  0  0  0
  1  2  1  0  0  0  0
  1  3  1  0  0  0  0
  1  4  1  0  0  0  0
  1  5  1  0  0  0  0
M  END
